-------------------------------------------------------
          Amber 16 SANDER                              2016
          -------------------------------------------------------

  [-O]verwriting output

File Assignments:

 Here is the input file:

heating from 0 to 300 K then stabilizing
 &cntrl
  imin=0, irest=0, ntx=1,
  nstlim=20000, dt=0.001,
  ntc=2,	!SHAKE on
  ntf=2,	!constrain hydrogens
  ntt=3,	!Langevin dynamics
  gamma_ln = 2.0,	!collision frequency 1.0 ps-1
  tempi=0.0,
  temp0=300.0,
  ntpr=100, ntwx=100,
  ntb=1,	!constant volume periodic boundaries
  ig=-1,	!randomize seed
  cut=10.0,	!10 angstrom cutoff
  ntr=1		!position restraints on
 /
Keep protein fixed with weak restraints
10.0
RES 0 77
END
END

--------------------------------------------------------------------------------
   1.  RESOURCE   USE:
--------------------------------------------------------------------------------

 getting box info from netcdf restart file
 NATOM  =   15862 NTYPES =      17 NBONH =   15228 MBONA  =     642
 NTHETH =    1451 MTHETA =     868 NPHIH =    2898 MPHIA  =    2757
 NHPARM =       0 NPARM  =       0 NNB   =   26474 NRES   =    4947
 NBONA  =     642 NTHETA =     868 NPHIA =    2757 NUMBND =      66
 NUMANG =     152 NPTRA  =     193 NATYP =      34 NPHB   =       1
 IFBOX  =       2 NMXRS  =      26 IFCAP =       0 NEXTRA =       0
 NCOPY  =       0

     BOX TYPE: TRUNCATED OCTAHEDRON
Note: ig = -1. Setting random seed to   805125 based on wallclock time in microseconds.

--------------------------------------------------------------------------------
   2.  CONTROL  DATA  FOR  THE  RUN
--------------------------------------------------------------------------------

default_name

General flags:
     imin    =       0, nmropt  =       0

Nature and format of input:
     ntx     =       1, irest   =       0, ntrx    =       1

Nature and format of output:
     ntxo    =       2, ntpr    =     100, ntrx    =       1, ntwr    =   20000
     iwrap   =       0, ntwx    =     100, ntwv    =       0, ntwe    =       0
     ioutfm  =       1, ntwprt  =       0, idecomp =       0, rbornstat=      0

Potential function:
     ntf     =       2, ntb     =       1, igb     =       0, nsnb    =      25
     ipol    =       0, gbsa    =       0, iesp    =       0
     dielc   =   1.00000, cut     =  10.00000, intdiel =   1.00000

Frozen or restrained atoms:
     ibelly  =       0, ntr     =       1
     restraint_wt =   0.00000

Molecular dynamics:
     nstlim  =     20000, nscm    =         0, nrespa  =         1
     t       =   0.00000, dt      =   0.00100, vlimit  =  20.00000

Langevin dynamics temperature regulation:
     ig      =  805125
     temp0   = 300.00000, tempi   =   0.00000, gamma_ln=   2.00000

SHAKE:
     ntc     =       2, jfastw  =       0
     tol     =   0.00001

Ewald parameters:
     verbose =       0, ew_type =       0, nbflag  =       1, use_pme =       1
     vdwmeth =       1, eedmeth =       1, netfrc  =       1
     Box X =   62.144   Box Y =   62.144   Box Z =   62.144
     Alpha =  109.471   Beta  =  109.471   Gamma =  109.471
     NFFT1 =   64       NFFT2 =   64       NFFT3 =   64
     Cutoff=   10.000   Tol   =0.100E-04
     Ewald Coefficient =  0.27511
     Interpolation order =    4

    LOADING THE CONSTRAINED ATOMS AS GROUPS

   5.  REFERENCE ATOM COORDINATES

  defa
    ----- READING GROUP     1; TITLE:
 Keep protein fixed with weak restraints

     GROUP    1 HAS HARMONIC CONSTRAINTS    10.00000
      Number of atoms in this group  =     0
    ----- END OF GROUP READ -----

--------------------------------------------------------------------------------
   3.  ATOMIC COORDINATES AND VELOCITIES
--------------------------------------------------------------------------------

default_name
 begin time read from input coords =     0.000 ps

 Number of triangulated 3-point waters found:     4864

     Sum of charges from parm topology file =  -0.00000004
     Forcing neutrality...

--------------------------------------------------------------------------------
   4.  RESULTS
 NSTEP =        0   TIME(PS) =       0.000  TEMP(K) =     0.00  PRESS =     0.0
 Etot   =    -68566.7638  EKtot   =         0.0000  EPtot      =    -68566.7638
 BOND   =        49.1774  ANGLE   =       159.8661  DIHED      =       883.3133
 1-4 NB =       238.7895  1-4 EEL =      3059.4690  VDWAALS    =     11744.3894
 EELEC  =    -84701.7684  EHBOND  =         0.0000  RESTRAINT  =         0.0000
 Ewald error estimate:   0.6115E-04
 ------------------------------------------------------------------------------

      A V E R A G E S   O V E R   20000 S T E P S

 NSTEP =    20000   TIME(PS) =      20.000  TEMP(K) =   291.41  PRESS =     0.0
 Etot   =    -38689.9904  EKtot   =      9369.1040  EPtot      =    -48059.0945
 BOND   =       234.0665  ANGLE   =       613.5084  DIHED      =      1007.4839
 1-4 NB =       276.6223  1-4 EEL =      3070.2737  VDWAALS    =      5961.3052
 EELEC  =    -59222.3544  EHBOND  =         0.0000  RESTRAINT  =         0.0000
 Ewald error estimate:   0.8173E-04
 ------------------------------------------------------------------------------

      R M S  F L U C T U A T I O N S

 NSTEP =    20000   TIME(PS) =      20.000  TEMP(K) =    32.13  PRESS =     0.0
 Etot   =      2501.9861  EKtot   =      1033.0185  EPtot      =      1481.3479
 BOND   =        23.8592  ANGLE   =        53.1385  DIHED      =        17.2278
 1-4 NB =         7.9885  1-4 EEL =        19.3678  VDWAALS    =       611.6294
 EELEC  =      1995.4927  EHBOND  =         0.0000  RESTRAINT  =         0.0000
 Ewald error estimate:   0.6139E-04
 ------------------------------------------------------------------------------
