-------------------------------------------------------
          Amber 16 SANDER                              2016
          -------------------------------------------------------

  [-O]verwriting output

File Assignments:

 Here is the input file:

heating from 0 to 300 K then stabilizing
 &cntrl
  imin=0, irest=0, ntx=1,
  nstlim=20000, dt=0.001,
  ntc=2,	!SHAKE on
  ntf=2,	!constrain hydrogens
  ntt=3,	!Langevin dynamics
  gamma_ln = 2.0,	!collision frequency 1.0 ps-1
  tempi=0.0,
  temp0=300.0,
  ntpr=100, ntwx=100,
  ntb=1,	!constant volume periodic boundaries
  ig=-1,	!randomize seed
  cut=10.0,	!10 angstrom cutoff
  ntr=1		!position restraints on
 /
Keep protein fixed with weak restraints
10.0
RES 0 81
END
END

--------------------------------------------------------------------------------
   1.  RESOURCE   USE:
--------------------------------------------------------------------------------

 getting box info from netcdf restart file
 NATOM  =   13418 NTYPES =      17 NBONH =   12761 MBONA  =     665
 NTHETH =    1509 MTHETA =     898 NPHIH =    3012 MPHIA  =    2844
 NHPARM =       0 NPARM  =       0 NNB   =   23419 NRES   =    4118
 NBONA  =     665 NTHETA =     898 NPHIA =    2844 NUMBND =      67
 NUMANG =     153 NPTRA  =     191 NATYP =      36 NPHB   =       1
 IFBOX  =       2 NMXRS  =      24 IFCAP =       0 NEXTRA =       0
 NCOPY  =       0

     BOX TYPE: TRUNCATED OCTAHEDRON
Note: ig = -1. Setting random seed to   478512 based on wallclock time in microseconds.

--------------------------------------------------------------------------------
   2.  CONTROL  DATA  FOR  THE  RUN
--------------------------------------------------------------------------------

default_name

General flags:
     imin    =       0, nmropt  =       0

Nature and format of input:
     ntx     =       1, irest   =       0, ntrx    =       1

Nature and format of output:
     ntxo    =       2, ntpr    =     100, ntrx    =       1, ntwr    =   20000
     iwrap   =       0, ntwx    =     100, ntwv    =       0, ntwe    =       0
     ioutfm  =       1, ntwprt  =       0, idecomp =       0, rbornstat=      0

Potential function:
     ntf     =       2, ntb     =       1, igb     =       0, nsnb    =      25
     ipol    =       0, gbsa    =       0, iesp    =       0
     dielc   =   1.00000, cut     =  10.00000, intdiel =   1.00000

Frozen or restrained atoms:
     ibelly  =       0, ntr     =       1
     restraint_wt =   0.00000

Molecular dynamics:
     nstlim  =     20000, nscm    =         0, nrespa  =         1
     t       =   0.00000, dt      =   0.00100, vlimit  =  20.00000

Langevin dynamics temperature regulation:
     ig      =  478512
     temp0   = 300.00000, tempi   =   0.00000, gamma_ln=   2.00000

SHAKE:
     ntc     =       2, jfastw  =       0
     tol     =   0.00001

Ewald parameters:
     verbose =       0, ew_type =       0, nbflag  =       1, use_pme =       1
     vdwmeth =       1, eedmeth =       1, netfrc  =       1
     Box X =   59.134   Box Y =   59.134   Box Z =   59.134
     Alpha =  109.471   Beta  =  109.471   Gamma =  109.471
     NFFT1 =   60       NFFT2 =   60       NFFT3 =   60
     Cutoff=   10.000   Tol   =0.100E-04
     Ewald Coefficient =  0.27511
     Interpolation order =    4

    LOADING THE CONSTRAINED ATOMS AS GROUPS

   5.  REFERENCE ATOM COORDINATES

  defa
    ----- READING GROUP     1; TITLE:
 Keep protein fixed with weak restraints

     GROUP    1 HAS HARMONIC CONSTRAINTS    10.00000
      Number of atoms in this group  =     0
    ----- END OF GROUP READ -----

--------------------------------------------------------------------------------
   3.  ATOMIC COORDINATES AND VELOCITIES
--------------------------------------------------------------------------------

default_name
 begin time read from input coords =     0.000 ps

 Number of triangulated 3-point waters found:     4033

     Sum of charges from parm topology file =  -0.00000004
     Forcing neutrality...

--------------------------------------------------------------------------------
   4.  RESULTS
 NSTEP =        0   TIME(PS) =       0.000  TEMP(K) =     0.00  PRESS =     0.0
 Etot   =    -57163.6231  EKtot   =         0.0000  EPtot      =    -57163.6231
 BOND   =        48.0978  ANGLE   =       161.2005  DIHED      =       918.1001
 1-4 NB =       253.7602  1-4 EEL =      3426.4044  VDWAALS    =      9744.2695
 EELEC  =    -71715.4556  EHBOND  =         0.0000  RESTRAINT  =         0.0000
 Ewald error estimate:   0.5061E-04
 ------------------------------------------------------------------------------

      A V E R A G E S   O V E R   20000 S T E P S

 NSTEP =    20000   TIME(PS) =      20.000  TEMP(K) =   291.87  PRESS =     0.0
 Etot   =    -32021.1749  EKtot   =      7972.9133  EPtot      =    -39994.0883
 BOND   =       241.6577  ANGLE   =       638.3909  DIHED      =      1044.3340
 1-4 NB =       289.1779  1-4 EEL =      3424.7612  VDWAALS    =      4812.2250
 EELEC  =    -50444.6350  EHBOND  =         0.0000  RESTRAINT  =         0.0000
 Ewald error estimate:   0.8706E-04
 ------------------------------------------------------------------------------

      R M S  F L U C T U A T I O N S

 NSTEP =    20000   TIME(PS) =      20.000  TEMP(K) =    32.23  PRESS =     0.0
 Etot   =      2085.4797  EKtot   =       880.3562  EPtot      =      1215.1698
 BOND   =        25.3519  ANGLE   =        57.1886  DIHED      =        17.1055
 1-4 NB =         7.8972  1-4 EEL =        20.0464  VDWAALS    =       503.4056
 EELEC  =      1616.1803  EHBOND  =         0.0000  RESTRAINT  =         0.0000
 Ewald error estimate:   0.6594E-04
 ------------------------------------------------------------------------------
