-------------------------------------------------------
          Amber 16 SANDER                              2016
          -------------------------------------------------------

  [-O]verwriting output

File Assignments:

 Here is the input file:

heating from 0 to 300 K then stabilizing
 &cntrl
  imin=0, irest=0, ntx=1,
  nstlim=20000, dt=0.001,
  ntc=2,	!SHAKE on
  ntf=2,	!constrain hydrogens
  ntt=3,	!Langevin dynamics
  gamma_ln = 2.0,	!collision frequency 1.0 ps-1
  tempi=0.0,
  temp0=300.0,
  ntpr=100, ntwx=100,
  ntb=1,	!constant volume periodic boundaries
  ig=-1,	!randomize seed
  cut=10.0,	!10 angstrom cutoff
  ntr=1		!position restraints on
 /
Keep protein fixed with weak restraints
10.0
RES 0 81
END
END

--------------------------------------------------------------------------------
   1.  RESOURCE   USE:
--------------------------------------------------------------------------------

 getting box info from netcdf restart file
 NATOM  =   15203 NTYPES =      17 NBONH =   14547 MBONA  =     663
 NTHETH =    1505 MTHETA =     894 NPHIH =    2998 MPHIA  =    2814
 NHPARM =       0 NPARM  =       0 NNB   =   25775 NRES   =    4716
 NBONA  =     663 NTHETA =     894 NPHIA =    2814 NUMBND =      67
 NUMANG =     154 NPTRA  =     191 NATYP =      36 NPHB   =       1
 IFBOX  =       2 NMXRS  =      24 IFCAP =       0 NEXTRA =       0
 NCOPY  =       0

     BOX TYPE: TRUNCATED OCTAHEDRON
Note: ig = -1. Setting random seed to   191131 based on wallclock time in microseconds.

--------------------------------------------------------------------------------
   2.  CONTROL  DATA  FOR  THE  RUN
--------------------------------------------------------------------------------

default_name

General flags:
     imin    =       0, nmropt  =       0

Nature and format of input:
     ntx     =       1, irest   =       0, ntrx    =       1

Nature and format of output:
     ntxo    =       2, ntpr    =     100, ntrx    =       1, ntwr    =   20000
     iwrap   =       0, ntwx    =     100, ntwv    =       0, ntwe    =       0
     ioutfm  =       1, ntwprt  =       0, idecomp =       0, rbornstat=      0

Potential function:
     ntf     =       2, ntb     =       1, igb     =       0, nsnb    =      25
     ipol    =       0, gbsa    =       0, iesp    =       0
     dielc   =   1.00000, cut     =  10.00000, intdiel =   1.00000

Frozen or restrained atoms:
     ibelly  =       0, ntr     =       1
     restraint_wt =   0.00000

Molecular dynamics:
     nstlim  =     20000, nscm    =         0, nrespa  =         1
     t       =   0.00000, dt      =   0.00100, vlimit  =  20.00000

Langevin dynamics temperature regulation:
     ig      =  191131
     temp0   = 300.00000, tempi   =   0.00000, gamma_ln=   2.00000

SHAKE:
     ntc     =       2, jfastw  =       0
     tol     =   0.00001

Ewald parameters:
     verbose =       0, ew_type =       0, nbflag  =       1, use_pme =       1
     vdwmeth =       1, eedmeth =       1, netfrc  =       1
     Box X =   61.296   Box Y =   61.296   Box Z =   61.296
     Alpha =  109.471   Beta  =  109.471   Gamma =  109.471
     NFFT1 =   64       NFFT2 =   64       NFFT3 =   64
     Cutoff=   10.000   Tol   =0.100E-04
     Ewald Coefficient =  0.27511
     Interpolation order =    4

    LOADING THE CONSTRAINED ATOMS AS GROUPS

   5.  REFERENCE ATOM COORDINATES

  defa
    ----- READING GROUP     1; TITLE:
 Keep protein fixed with weak restraints

     GROUP    1 HAS HARMONIC CONSTRAINTS    10.00000
      Number of atoms in this group  =     0
    ----- END OF GROUP READ -----

--------------------------------------------------------------------------------
   3.  ATOMIC COORDINATES AND VELOCITIES
--------------------------------------------------------------------------------

default_name
 begin time read from input coords =     0.000 ps

 Number of triangulated 3-point waters found:     4629

     Sum of charges from parm topology file =  -0.00000004
     Forcing neutrality...

--------------------------------------------------------------------------------
   4.  RESULTS
 NSTEP =        0   TIME(PS) =       0.000  TEMP(K) =     0.00  PRESS =     0.0
 Etot   =    -65372.3775  EKtot   =         0.0000  EPtot      =    -65372.3775
 BOND   =        46.3292  ANGLE   =       176.5422  DIHED      =       901.3649
 1-4 NB =       249.3305  1-4 EEL =      3550.4447  VDWAALS    =     11053.2810
 EELEC  =    -81349.6699  EHBOND  =         0.0000  RESTRAINT  =         0.0000
 Ewald error estimate:   0.1677E-04
 ------------------------------------------------------------------------------

      A V E R A G E S   O V E R   20000 S T E P S

 NSTEP =    20000   TIME(PS) =      20.000  TEMP(K) =   292.19  PRESS =     0.0
 Etot   =    -36684.8123  EKtot   =      9017.8506  EPtot      =    -45702.6628
 BOND   =       239.8865  ANGLE   =       651.7404  DIHED      =      1025.9462
 1-4 NB =       285.1796  1-4 EEL =      3552.0976  VDWAALS    =      5596.7718
 EELEC  =    -57054.2848  EHBOND  =         0.0000  RESTRAINT  =         0.0000
 Ewald error estimate:   0.8056E-04
 ------------------------------------------------------------------------------

      R M S  F L U C T U A T I O N S

 NSTEP =    20000   TIME(PS) =      20.000  TEMP(K) =    32.43  PRESS =     0.0
 Etot   =      2415.8737  EKtot   =      1000.9646  EPtot      =      1425.4766
 BOND   =        25.4986  ANGLE   =        56.5116  DIHED      =        17.4900
 1-4 NB =         8.1848  1-4 EEL =        19.5456  VDWAALS    =       583.0110
 EELEC  =      1907.6647  EHBOND  =         0.0000  RESTRAINT  =         0.0000
 Ewald error estimate:   0.6055E-04
 ------------------------------------------------------------------------------
